Circuit: * C:\Users\andre\Octave Projects\Digital Filter\Draft2.asc

.OP point found by inspection.

Date: Tue Jul 07 20:43:19 2020
Total elapsed time: 6.725 seconds.

tnom = 27
temp = 27
method = modified trap
totiter = 5791210
traniter = 5791210
tranpoints = 2895606
accept = 2895606
rejected = 0
matrix size = 2
fillins = 0
solver = Normal
Matrix Compiler1: 36 bytes object code size  0.0/0.0/[0.0]
Matrix Compiler2: off  [0.0]/0.0/0.0

